Version 4
SHEET 1 880 680
WIRE 176 -96 -64 -96
WIRE 176 -48 176 -96
WIRE 208 -48 176 -48
WIRE 448 -48 288 -48
WIRE 448 0 448 -48
WIRE 448 0 352 0
WIRE 448 16 448 0
WIRE 176 32 176 -48
WIRE 448 96 448 80
WIRE 576 96 448 96
WIRE 352 112 352 0
WIRE 352 112 304 112
WIRE 448 112 448 96
WIRE 576 160 576 96
WIRE 352 176 304 176
WIRE 352 224 352 176
WIRE 448 224 448 192
WIRE 448 224 352 224
WIRE 336 240 304 240
WIRE 448 256 448 224
WIRE 336 288 336 240
WIRE 336 384 336 368
WIRE 176 464 176 320
WIRE 336 464 336 448
WIRE 336 464 176 464
WIRE 448 464 448 336
WIRE 448 464 336 464
WIRE 576 464 576 224
WIRE 576 464 448 464
WIRE 176 480 176 464
FLAG 176 480 0
FLAG -64 -16 0
SYMBOL PowerProducts\\LT1270A 176 176 R0
SYMATTR InstName U1
SYMBOL voltage -64 -112 R0
SYMATTR InstName V1
SYMATTR Value 5
SYMBOL ind 192 -32 R270
WINDOW 0 32 56 VTop 2
WINDOW 3 5 56 VBottom 2
SYMATTR InstName L1
SYMATTR Value 55µ
SYMBOL res 432 96 R0
SYMATTR InstName R1
SYMATTR Value 33k
SYMBOL res 432 240 R0
SYMATTR InstName R2
SYMATTR Value 10k
SYMBOL res 320 272 R0
SYMATTR InstName R3
SYMATTR Value 1k
SYMBOL cap 320 384 R0
SYMATTR InstName C1
SYMATTR Value 1µ
SYMBOL cap 560 160 R0
SYMATTR InstName C2
SYMATTR Value 1000µ
SYMBOL schottky 432 16 R0
SYMATTR InstName D1
SYMATTR Value RB085T-40NZ
TEXT -98 504 Left 2 !.tran 8m
